Version 4.1
SHEET 1 2092 680
WIRE 32 -48 -16 -48
WIRE 288 -48 96 -48
WIRE 1520 -48 1472 -48
WIRE 1776 -48 1584 -48
WIRE 240 48 240 16
WIRE 240 48 192 48
WIRE 1664 48 1664 -32
WIRE 1728 48 1696 48
WIRE -112 64 -176 64
WIRE -16 64 -16 -48
WIRE -16 64 -32 64
WIRE 16 64 -16 64
WIRE 112 64 96 64
WIRE 160 64 112 64
WIRE 1376 64 1312 64
WIRE 1472 64 1472 -48
WIRE 1472 64 1456 64
WIRE 1504 64 1472 64
WIRE 1600 64 1584 64
WIRE 1648 64 1600 64
WIRE 288 80 288 -48
WIRE 288 80 224 80
WIRE 320 80 288 80
WIRE 1776 80 1776 -48
WIRE 1776 80 1712 80
WIRE 1808 80 1776 80
WIRE -176 96 -176 64
WIRE 160 96 144 96
WIRE 1312 96 1312 64
WIRE 1648 96 1632 96
WIRE 112 112 112 64
WIRE 288 112 288 80
WIRE 1600 112 1600 64
WIRE 1680 112 1664 112
WIRE 1696 112 1680 112
WIRE 1776 112 1776 80
WIRE 192 176 192 112
WIRE 1680 176 1680 112
WIRE 144 224 144 96
WIRE 288 224 288 192
WIRE 288 224 144 224
WIRE 1632 224 1632 96
WIRE 1776 224 1776 192
WIRE 1776 224 1632 224
WIRE 288 336 288 304
WIRE 1776 336 1776 304
WIRE -176 416 -176 176
WIRE -16 416 -16 384
WIRE 144 416 144 384
WIRE 1312 416 1312 176
WIRE -16 528 -16 496
WIRE 144 528 144 496
FLAG 288 336 0
FLAG 112 176 0
FLAG -176 416 0
FLAG -16 384 feed
FLAG 192 176 feed
FLAG -16 528 0
FLAG 320 80 out
IOPIN 320 80 Out
FLAG 144 384 feed_neg
FLAG 144 528 0
FLAG 240 16 feed_neg
FLAG 1776 336 0
FLAG 1600 176 0
FLAG 1312 416 0
FLAG 1680 176 feed
FLAG 1808 80 out2
IOPIN 1808 80 Out
FLAG 1664 -32 feed_neg
FLAG 1728 48 0
SYMBOL OpAmps\\UniversalOpAmp 192 80 M180
SYMATTR InstName U1
SYMBOL res -16 48 R90
WINDOW 0 0 56 VBottom 2
WINDOW 3 32 56 VTop 2
SYMATTR InstName R1
SYMATTR Value {r1}
SYMBOL res 112 48 R90
WINDOW 0 0 56 VBottom 2
WINDOW 3 32 56 VTop 2
SYMATTR InstName R2
SYMATTR Value {r2}
SYMBOL cap 96 112 R0
SYMATTR InstName C1
SYMATTR Value {c2}
SYMBOL res 272 96 R0
SYMATTR InstName R3
SYMATTR Value {rb}
SYMBOL res 272 208 R0
SYMATTR InstName R4
SYMATTR Value {ra}
SYMBOL voltage -176 80 R0
WINDOW 123 24 124 Left 2
WINDOW 39 0 0 Left 0
SYMATTR Value2 AC 1
SYMATTR InstName V1
SYMATTR Value 1
SYMBOL voltage -16 400 R0
WINDOW 123 0 0 Left 0
WINDOW 39 0 0 Left 0
SYMATTR InstName V2
SYMATTR Value {feed}
SYMBOL cap 96 -64 R90
WINDOW 0 0 32 VBottom 2
WINDOW 3 32 32 VTop 2
SYMATTR InstName C2
SYMATTR Value {c1}
SYMBOL voltage 144 400 R0
WINDOW 123 0 0 Left 0
WINDOW 39 0 0 Left 0
SYMATTR InstName V3
SYMATTR Value {-feed}
SYMBOL res 1472 48 R90
WINDOW 0 0 56 VBottom 2
WINDOW 3 32 56 VTop 2
SYMATTR InstName R5
SYMATTR Value {r1}
SYMATTR SpiceLine tol=1
SYMBOL res 1600 48 R90
WINDOW 0 0 56 VBottom 2
WINDOW 3 32 56 VTop 2
SYMATTR InstName R6
SYMATTR Value {r2}
SYMATTR SpiceLine tol=1
SYMBOL cap 1584 112 R0
SYMATTR InstName C3
SYMATTR Value {c2}
SYMBOL res 1760 96 R0
SYMATTR InstName R7
SYMATTR Value {rb}
SYMATTR SpiceLine tol=1
SYMBOL res 1760 208 R0
SYMATTR InstName R8
SYMATTR Value {ra}
SYMATTR SpiceLine tol=1
SYMBOL voltage 1312 80 R0
WINDOW 123 24 124 Left 2
WINDOW 39 0 0 Left 0
SYMATTR Value2 AC 1
SYMATTR InstName V4
SYMATTR Value 1
SYMBOL cap 1584 -64 R90
WINDOW 0 0 32 VBottom 2
WINDOW 3 32 32 VTop 2
SYMATTR InstName C4
SYMATTR Value {c1}
SYMBOL OpAmps\\LTC2057 1680 80 M180
SYMATTR InstName U3
TEXT 424 -56 Left 2 !.param r1=158k\n.param r2=158k\n.param  rb 100k\n.param ra 59k\n.param c1 1u\n.param c2 1u\n.param vin 1\n.param feed=5
TEXT 424 208 Left 2 ;.ac dec 100 0.1 1mega
TEXT 440 272 Left 2 !.tran 0 0.8 0 0.01m
TEXT 424 336 Left 2 ;https://chatgpt.com/c/68d34564-496c-8332-846c-a7a83aa87c9c
