Version 4.1
SHEET 1 2656 1216
WIRE 160 -112 96 -112
WIRE 96 -64 96 -112
WIRE 96 -64 48 -64
WIRE -336 -48 -384 -48
WIRE 16 -48 -336 -48
WIRE -336 -32 -336 -48
WIRE 128 -32 80 -32
WIRE 320 -32 304 -32
WIRE 448 -32 400 -32
WIRE 16 -16 -64 -16
WIRE 880 16 832 16
WIRE 1136 16 944 16
WIRE 48 32 48 0
WIRE 48 32 -16 32
WIRE 1072 48 1024 48
WIRE -64 64 -64 -16
WIRE 32 64 -64 64
WIRE 128 64 128 -32
WIRE 128 64 112 64
WIRE 192 64 128 64
WIRE 304 64 304 -32
WIRE 304 64 272 64
WIRE 400 64 352 64
WIRE -336 80 -336 48
WIRE -64 80 -64 64
WIRE 352 96 352 64
WIRE 304 112 304 64
WIRE 320 112 304 112
WIRE 1024 112 1024 48
WIRE 1056 112 1056 80
WIRE 1088 112 1056 112
WIRE 448 128 448 -32
WIRE 448 128 384 128
WIRE 496 128 496 96
WIRE 496 128 448 128
WIRE 736 128 496 128
WIRE 832 128 832 16
WIRE 832 128 816 128
WIRE 864 128 832 128
WIRE 960 128 944 128
WIRE 1008 128 960 128
WIRE 320 144 304 144
WIRE 1136 144 1136 16
WIRE 1136 144 1072 144
WIRE 1168 144 1136 144
WIRE 496 160 496 128
WIRE 1008 160 992 160
WIRE -64 176 -64 160
WIRE 32 176 -64 176
WIRE 192 176 112 176
WIRE 304 176 304 144
WIRE 304 176 272 176
WIRE 960 176 960 128
WIRE 1040 176 1024 176
WIRE 1136 176 1136 144
WIRE 48 208 16 208
WIRE 352 208 352 160
WIRE 416 208 352 208
WIRE 1040 208 1040 176
WIRE 1056 208 1056 176
WIRE 1056 208 1040 208
WIRE 48 240 48 208
WIRE 304 240 304 176
WIRE -64 256 -64 176
WIRE 16 256 -64 256
WIRE 112 272 112 176
WIRE 112 272 80 272
WIRE 1040 272 1040 208
WIRE 1072 272 1040 272
WIRE -336 288 -336 160
WIRE -336 288 -384 288
WIRE 16 288 -336 288
WIRE 992 288 992 160
WIRE 1136 288 1136 256
WIRE 1136 288 992 288
WIRE 416 336 416 208
WIRE 432 336 416 336
WIRE 304 352 304 320
WIRE 1136 400 1136 368
WIRE 48 432 48 304
WIRE 112 432 48 432
WIRE 448 480 448 464
WIRE 560 480 448 480
WIRE 656 480 624 480
WIRE 656 496 656 480
WIRE 800 496 800 480
WIRE 880 496 800 496
WIRE 976 496 944 496
WIRE 448 512 448 480
WIRE 976 512 976 496
WIRE 800 528 800 496
WIRE 448 624 448 592
WIRE 800 640 800 608
FLAG 448 464 FEED
FLAG 448 624 0
FLAG 304 352 0
FLAG -16 32 FEED
FLAG 16 208 FEED
FLAG 400 64 FEED
FLAG 496 96 OUT_AMP
FLAG -384 288 v2
FLAG -384 -48 v1
FLAG 656 496 0
FLAG 976 512 0
FLAG 1136 400 0
FLAG 960 240 0
FLAG 1168 144 OUT_FINAL
IOPIN 1168 144 Out
FLAG 1088 112 0
FLAG 800 480 FEED_NEG
FLAG 800 640 0
FLAG 1072 272 FEED
FLAG 112 432 0
FLAG 432 336 0
FLAG 160 -112 0
FLAG 496 240 0
FLAG 1072 48 0
SYMBOL res 128 48 R90
WINDOW 0 0 56 VBottom 2
WINDOW 3 32 56 VTop 2
SYMATTR InstName R1
SYMATTR Value {r2_amp}
SYMBOL res 128 160 R90
WINDOW 0 0 56 VBottom 2
WINDOW 3 32 56 VTop 2
SYMATTR InstName R2
SYMATTR Value {r2_amp}
SYMBOL res -48 176 R180
WINDOW 0 36 76 Left 2
WINDOW 3 36 40 Left 2
SYMATTR InstName R3
SYMATTR Value {rg}
SYMBOL res 176 80 R270
WINDOW 0 32 56 VTop 2
WINDOW 3 0 56 VBottom 2
SYMATTR InstName R4
SYMATTR Value {r_amp}
SYMBOL res 176 192 R270
WINDOW 0 32 56 VTop 2
WINDOW 3 0 56 VBottom 2
SYMATTR InstName R5
SYMATTR Value {r_amp}
SYMBOL res 304 -16 R270
WINDOW 0 32 56 VTop 2
WINDOW 3 0 56 VBottom 2
SYMATTR InstName R6
SYMATTR Value {rf}
SYMBOL res 288 224 R0
SYMATTR InstName R7
SYMATTR Value {rf}
SYMBOL voltage -336 176 R180
WINDOW 123 24 68 Left 2
WINDOW 39 0 0 Left 0
SYMATTR Value2 AC 1
SYMATTR InstName V1
SYMATTR Value {v_in}
SYMBOL voltage 448 496 R0
WINDOW 123 0 0 Left 0
WINDOW 39 0 0 Left 0
SYMATTR InstName V2
SYMATTR Value 5
SYMBOL cap 624 464 R90
WINDOW 0 0 32 VBottom 2
WINDOW 3 32 32 VTop 2
SYMATTR InstName C1
SYMATTR Value 0.1µ
SYMBOL cap 944 480 R90
WINDOW 0 0 32 VBottom 2
WINDOW 3 32 32 VTop 2
SYMATTR InstName C2
SYMATTR Value 0.1µ
SYMBOL OpAmps\\ADA4528-1 48 208 R0
SYMATTR InstName U1
SYMBOL OpAmps\\ADA4528-1 352 64 R0
SYMATTR InstName U2
SYMBOL OpAmps\\ADA4528-1 48 32 M180
SYMATTR InstName U3
SYMBOL res 832 112 R90
WINDOW 0 0 56 VBottom 2
WINDOW 3 32 56 VTop 2
SYMATTR InstName R9
SYMATTR Value {r1}
SYMATTR SpiceLine tol=1
SYMBOL res 960 112 R90
WINDOW 0 0 56 VBottom 2
WINDOW 3 32 56 VTop 2
SYMATTR InstName R10
SYMATTR Value {r2}
SYMATTR SpiceLine tol=1
SYMBOL cap 944 176 R0
SYMATTR InstName C3
SYMATTR Value {c2}
SYMBOL res 1120 160 R0
SYMATTR InstName R11
SYMATTR Value {rb}
SYMATTR SpiceLine tol=1
SYMBOL res 1120 272 R0
SYMATTR InstName R12
SYMATTR Value {ra}
SYMATTR SpiceLine tol=1
SYMBOL cap 944 0 R90
WINDOW 0 0 32 VBottom 2
WINDOW 3 32 32 VTop 2
SYMATTR InstName C4
SYMATTR Value {c1}
SYMBOL OpAmps\\LTC2057 1040 144 M180
SYMATTR InstName U4
SYMBOL voltage 800 512 R0
WINDOW 123 0 0 Left 0
WINDOW 39 0 0 Left 0
SYMATTR InstName V3
SYMATTR Value -5
SYMBOL voltage -336 64 R180
WINDOW 123 24 68 Left 2
WINDOW 39 0 0 Left 0
WINDOW 3 24 40 Left 2
SYMATTR Value2 AC 1
SYMATTR InstName V4
SYMATTR Value ""
SYMBOL res 480 144 R0
SYMATTR InstName R8
SYMATTR Value 1000
TEXT 1640 328 Left 2 !.param v_in=20m
TEXT 1640 368 Left 2 !.param rg=75
TEXT 1648 416 Left 2 !.param r2_amp=1k
TEXT 1648 464 Left 2 !.param r_amp=1k
TEXT 1648 512 Left 2 !.param rf=1k
TEXT 1656 568 Left 2 !.param load 10000
TEXT 1656 648 Left 2 ;vo = (rf/r)*(1+(2*r2/rg))*(V2-V1)
TEXT 1648 728 Left 2 ;Substituir R4/RG por um potenciometro
TEXT 1664 808 Left 2 !.param r1=158k\n.param r2=158k\n.param  rb 100k\n.param ra 59k\n.param c1 1u\n.param c2 1u\n.param vin 1\n.param feed=5
TEXT 16 496 Left 2 ;.ac dec 100 0.1 1mega
TEXT 32 560 Left 2 !.tran 0 0.8 0 0.01m
